/*--------------------------------*- C++ -*----------------------------------*\
  =========                |
  \      /  F ield         | OpenFOAM: The Open Source CFD Toolbox
   \    /   O peration     | Website:  https://openfoam.org
    \  /    A nd           | Version:  9
     \/     M anipulation  |
*---------------------------------------------------------------------------*/
FoamFile
{
    format      ascii;
    class       vectorField;
    object      cloudPositions;
}
// * * * * * * * * * * * * * * * * * * * * * * * * * * * * * * * * * * * * * //

(
(0.08288158151 0.0008736752629 -9.738255111e-005)
(0.08096502247 0.004905230355 -0.0001750547278)
(0.08252287363 0.001761461686 -0.0002032160509)
(0.08699258787 0.003756660767 -0.0001258034993)
(0.08201890883 0.003617843139 -6.000661814e-005)
(0.08086741148 0.004899519517 -0.0002170316474)
(0.0817279627 0.002019064627 -0.0001658401163)
(0.08776810821 0.001626267323 -0.0002291002393)
(0.08816156241 0.003417412651 -9.542584848e-005)
(0.08485361999 0.004492332812 -6.899958505e-005)
(0.08376333961 0.003428436185 -0.0001097338934)
(0.08674544171 0.001170577118 -7.297309775e-005)
(0.08506082772 0.004467474923 -0.0001747111361)
(0.0880768339 0.004381127539 -0.000161684806)
(0.08827004494 0.001383849904 -0.0001244206591)
(0.08712790865 0.004202660042 -0.0001926562086)
(0.08703065372 0.002092887256 -0.0001645187763)
(0.08080280606 0.003987848654 -0.0002305367159)
(0.08498899861 0.004427302524 -0.0001676305224)
(0.08317544893 0.00422081793 -8.034331168e-005)
(0.08211993554 0.002168512787 -0.0001411094917)
(0.08389817046 0.002311139581 -0.0002417989479)
(0.08394222865 0.001792365284 -0.0001209725537)
(0.08092321981 0.002797067524 -0.0002385024491)
(0.08854297863 0.003571763207 -0.0002684031786)
(0.0840035377 0.0003266292607 -0.0001777793036)
(0.0837919216 0.002667658873 -0.0002225131013)
(0.08093657132 0.004235484274 -5.371846536e-005)
(0.0838084052 0.003708842554 -6.886924797e-005)
(0.08468887119 0.00378970971 -9.880773768e-005)
(0.08032825123 0.004665521252 -6.683638074e-005)
(0.08077599244 0.002901240746 -9.525260707e-005)
(0.08947489285 0.004045914683 -0.0001278023166)
(0.08278484564 0.002867701874 -0.0001683661341)
(0.08865567885 0.004803052597 -0.0002311357267)
(0.08430175505 0.001247136863 -0.0001944141036)
(0.08563727934 0.001756755913 -0.0001438387778)
(0.08624313967 0.002630595295 -0.0001762144058)
(0.08496568047 0.003098680248 -0.0002406185085)
(0.08250485433 0.0030846005 -0.0002208859688)
(0.08089341236 0.00301509696 -7.747621308e-005)
(0.0867855226 0.004041787275 -0.0001785366926)
(0.08008041327 0.003557809221 -0.0002151097271)
(0.08163070927 0.003384367279 -6.666876063e-005)
(0.08736488533 0.004347462725 -5.8545723e-005)
(0.08477842503 0.004241436799 -0.0001234508093)
(0.08416719234 0.0003691092725 -0.0001573699505)
(0.08493251869 0.0005910186656 -0.0002194914852)
(0.08752136196 0.002481908135 -0.0002209595321)
(0.08856272023 0.004786301426 -0.0002235808026)
(0.08189192701 0.0001548014448 -7.062761819e-005)
(0.0811239298 0.001680067295 -0.0001733775682)
(0.08132230832 0.002960144645 -0.0002304340988)
(0.08372556178 0.003982845888 -6.047126597e-005)
(0.08552892921 0.00206880324 -0.0001758647025)
(0.08951407981 0.002511926696 -0.0002249437866)
(0.08873237403 0.00222169615 -0.0002215224433)
(0.08796097393 0.002913537352 -0.000172707519)
(0.08576484307 0.002179208055 -6.744271194e-005)
(0.08502531015 0.003120597623 -0.0001140877984)
(0.08623435923 0.003214615536 -6.100333332e-005)
(0.08740646594 0.0008255288056 -0.0001280112083)
(0.08752832292 0.002561653592 -0.0001639980595)
(0.08307893747 0.0003271686033 -7.410567786e-005)
(0.08335964869 0.002413553453 -0.0001579974665)
(0.08304262201 0.001425835918 -9.522268072e-005)
(0.08602217256 0.004805084877 -0.0001956970405)
(0.08511208529 0.003650167854 -0.0001343713099)
(0.08432211464 0.002635968717 -0.0001352046612)
(0.08058736981 0.0003440155505 -0.0001459568594)
(0.08074399495 0.002246461331 -0.000168603536)
(0.08570165707 0.004069686891 -0.0001899662262)
(0.08723643741 0.002442546251 -0.00011634286)
(0.08325051829 0.003169677402 -0.0002119778837)
(0.08870589123 0.003444484266 -0.0001704378754)
(0.08647833537 0.0009146786425 -0.0002186182238)
(0.08225530708 0.002628884747 -9.772581497e-005)
(0.08490684455 0.004911839395 -9.448128862e-005)
(0.08347690576 0.00276095644 -0.0002218264451)
(0.08321075368 0.00228721705 -0.0001256750524)
(0.08537622265 0.0002134706859 -6.369338952e-005)
(0.08771392085 0.00404090135 -0.0001634451871)
(0.08659089614 0.002255061719 -0.000132941996)
(0.0893919084 0.004760217465 -0.0001386454245)
(0.08070195553 0.002643027603 -6.69970911e-005)
(0.08472090497 0.001990186631 -0.0001617288448)
(0.08177723421 0.001443546421 -0.0001470146875)
(0.08691851598 0.002315533472 -0.000175908827)
(0.08803365185 0.002365659724 -0.0002263953363)
(0.08940822353 0.002747135727 -0.0001320215369)
(0.08740500353 0.002946737108 -0.0001709715091)
(0.08766878157 0.003805688777 -7.475508331e-005)
(0.08602212255 0.003882469906 -0.0001392018006)
(0.08906869529 0.002898988553 -0.0001006027093)
(0.0847990162 0.003305109269 -0.0001590938807)
(0.08798063886 0.002254041083 -0.0001678590372)
(0.08170728136 0.002448151406 -0.000152632354)
(0.08134013785 0.001745763298 -0.0001663077916)
(0.08389173291 0.003264343214 -0.0001314785513)
(0.08048413065 0.002621890977 -0.0001540229492)
(0.085607745 0.002876739459 -0.0001652359891)
(0.08235658177 0.004786413508 -0.0002167724404)
(0.08118503352 0.00101883989 -7.040389753e-005)
(0.08578026158 0.0003566472939 -0.0001755252015)
(0.08614048341 0.0003738492981 -0.000118077232)
(0.08360827845 0.00172635714 -0.0002291069513)
(0.08541686554 0.004588403466 -0.0001640050925)
(0.0882242366 0.001696323633 -0.0002192155895)
(0.08201535826 0.001593098277 -0.0001643887506)
(0.08700864758 0.0005816864658 -5.963171469e-005)
(0.08194882085 0.001769821183 -0.0001258042002)
(0.08747084195 0.004549790061 -0.0002215216595)
(0.08803691862 0.001157797137 -0.0001172227397)
(0.08992720541 0.0005479530479 -0.0001060470031)
(0.08673384272 0.0004071584808 -0.0001945333528)
(0.08441497 0.0001333583087 -0.0001895727697)
(0.08132368771 0.002834501907 -0.0001339993015)
(0.08711999463 0.000332847815 -0.0001219515255)
(0.08334203617 0.001294779841 -0.0001240777299)
(0.08040381992 0.003284994047 -0.0002171578068)
(0.08634682028 0.0005061831503 -0.0001304357953)
(0.08025215725 0.00125776696 -0.0001997285979)
(0.08169472976 0.003020827961 -0.0001171764549)
(0.08302710847 8.636743923e-005 -0.0001135874352)
(0.08994118275 0.002754275434 -0.0001806919086)
(0.08172301188 0.0008596594261 -0.0001777845639)
(0.08384272939 0.001819301502 -0.0001298019847)
(0.08966805696 0.001239776139 -6.758428178e-005)
(0.08696617332 0.002869279047 -8.940183018e-005)
(0.08356647544 0.003361147006 -0.0001789693691)
(0.08473902274 0.0005864535257 -0.0001777922147)
(0.08564816715 0.001089914924 -7.237466853e-005)
(0.08967697435 0.002107740395 -0.0001677253982)
(0.08961682678 0.003032220688 -9.670085101e-005)
(0.08386585549 0.002761247282 -7.187788176e-005)
(0.08059280235 0.00204337513 -0.0002497156594)
(0.08704886518 0.001297828635 -7.561763743e-005)
(0.08108663485 0.004030743112 -0.0001762577343)
(0.08725756288 0.004209443523 -0.0002179476594)
(0.08063507659 0.0001866729828 -0.0001558421594)
(0.08187560665 0.001204108375 -0.0001435461225)
(0.08023198438 0.001723669811 -0.0002326246401)
(0.08339182145 0.002929054909 -0.000218864765)
(0.08879207556 0.0007630055289 -0.0001728358723)
(0.08610312878 0.002031059147 -6.047146286e-005)
(0.08008733501 0.003313561416 -0.0002460943141)
(0.08837346876 0.004639142655 -6.279698639e-005)
(0.08920073485 0.002256042701 -6.77476492e-005)
(0.08555204145 0.0004797975974 -0.0002315372866)
(0.08901301512 0.002011092926 -0.000228076864)
(0.08637586142 0.0006322774758 -6.516219603e-005)
(0.08039864192 0.0007317751252 -0.0001090399935)
(0.08398532738 0.004325741178 -0.0001627946016)
(0.08964943238 0.001886109546 -0.0001694831757)
(0.08801713872 0.002971173412 -7.125826962e-005)
(0.08831083357 0.004127918587 -0.000136923689)
(0.08367041784 0.002170894563 -0.0001738525442)
(0.0884531114 0.003746051953 -0.000157832321)
(0.08370750281 0.002846709408 -5.92615271e-005)
(0.08760409645 0.0003391175315 -0.0001235857138)
(0.08182385577 0.001458958156 -0.0001861916776)
(0.08590845244 0.002065384508 -6.417079306e-005)
(0.08351344694 0.003828338255 -7.955124791e-005)
(0.08808727198 0.002775820307 -0.000233549471)
(0.08862847217 0.004753566014 -0.0002130131295)
(0.08321054407 0.003666967983 -0.0001204046298)
(0.08422122599 0.003151312625 -0.0001004261262)
(0.0857506196 0.001190678376 -6.359995888e-005)
(0.08482689207 0.004217606219 -0.0001490447715)
(0.08806379884 0.001862573534 -0.0001462652297)
(0.08534610782 0.0007103501823 -9.062896176e-005)
(0.08232104081 0.004521175608 -8.520383441e-005)
(0.08647659688 0.0001427538532 -0.0001722731377)
(0.08324240944 0.00317009355 -6.504096785e-005)
(0.0812183092 0.001037523963 -0.00012993746)
(0.0881046284 0.002194239811 -0.0002145695332)
(0.08461323486 0.0001458343005 -0.0001589557093)
(0.08645165739 0.0041681774 -0.000110569509)
(0.08216293937 0.004847601312 -0.0002373468996)
(0.08846033868 0.0005977549364 -0.0001664385908)
(0.08336219202 0.002445526249 -0.0002197597127)
(0.08667298923 0.001546314846 -5.073245716e-005)
(0.08392915162 0.004731169445 -5.74545835e-005)
(0.08068960689 0.001416959976 -0.0001276488263)
(0.08033855094 0.0007164545669 -0.0001268321882)
(0.08954428418 0.003073514493 -0.0001659285631)
(0.08050699289 0.004355961934 -0.0001623903914)
(0.0849359547 0.003441053793 -0.0001076874784)
(0.08450808163 0.003887887057 -0.0002185946201)
(0.08582321668 0.001691080826 -0.0001781784898)
(0.08994245603 0.004280309631 -8.222620011e-005)
(0.08012066657 0.0001388580606 -0.0002146887584)
(0.08902149537 0.004588498439 -0.0001596609578)
(0.0818884617 0.002266120103 -0.0001179492367)
(0.08178540607 0.00270289532 -0.0001677497088)
(0.08909328456 0.003912010443 -0.0001725489187)
(0.08758218789 0.002333793156 -0.0002230547482)
(0.0824421917 0.001052129351 -0.0001388898362)
(0.08117754048 0.000555790436 -7.811246491e-005)
(0.08295751674 0.004922783669 -0.0002365527746)
(0.08538430533 0.004859214389 -9.561959147e-005)
(0.08839552999 0.003319683543 -0.0001586650624)
(0.08097794954 0.00479886442 -0.0001657477914)
(0.0865299857 0.001409197775 -0.0001266500547)
(0.08950521871 0.001912393182 -0.0001047262977)
(0.08931603697 0.002123353104 -7.553630757e-005)
(0.08873302486 0.002292461248 -0.0002019851727)
(0.08223462677 0.001680957718 -0.0001776856879)
(0.08040433058 0.002172201791 -8.789698352e-005)
(0.088879164 0.001435762272 -0.0001287523622)
(0.08815830405 0.003056782913 -0.0001742463806)
(0.08688328225 0.001145757645 -9.86384188e-005)
(0.089186101 0.003361307772 -0.0001608253313)
(0.08243152436 0.001797893606 -9.462742085e-005)
(0.08576970836 0.001293789369 -0.0001828253573)
(0.08061879082 0.003992852455 -0.0002190187239)
(0.08631714951 0.004565665618 -0.0001398012203)
(0.08767341003 0.003918117153 -0.0001612838465)
(0.08210411801 0.002342004983 -0.0001397209537)
(0.08047960852 0.0007619652268 -0.0001154791911)
(0.08268505789 0.001013911455 -0.0001978179063)
(0.08667377575 0.001278181102 -0.0001808797487)
(0.08858231436 0.003088774408 -0.000177129251)
(0.08772227116 0.00374427138 -0.0002225137322)
(0.0878751709 0.004511499353 -0.0002177298981)
(0.08989428164 0.004208405169 -0.0002074117933)
(0.08314646966 0.004955498953 -0.0002153465517)
(0.08052819151 0.001515373586 -0.0001038875541)
(0.0898744129 0.003193405292 -0.0002337239915)
(0.08848849769 0.001983589724 -5.327206723e-005)
(0.08553563921 0.002531888185 -0.0002453823248)
(0.0862769394 0.002116427225 -0.0001517327813)
(0.08759610208 0.004526461076 -0.0001353434088)
(0.08151414547 0.003708358428 -0.0001166184818)
(0.08657738059 0.003756209977 -7.710316757e-005)
(0.08651313932 0.004867927282 -0.0001572531121)
(0.08053670995 0.001325129536 -0.0001728004129)
(0.0851184027 0.0002917072482 -0.0001749780075)
(0.08713564083 0.00455377909 -0.0001708848885)
(0.08598526071 0.001047870618 -8.642276094e-005)
(0.08279489144 0.004432655282 -6.308865064e-005)
(0.08364264972 0.002326501992 -0.0001663755626)
(0.08342116505 0.001523613985 -0.0002184403647)
(0.08909696771 0.004544783027 -0.0001084793034)
(0.08591617851 0.002731283552 -9.089398611e-005)
(0.08967400206 0.0001349321922 -6.086831904e-005)
(0.08469473317 0.003141081367 -0.000217178019)
(0.08779738539 0.003760534518 -0.0002536090751)
(0.0825332093 0.00131387644 -6.02419123e-005)
(0.08489017397 0.003546751096 -8.09581593e-005)
(0.08633331473 0.001817339885 -5.012864747e-005)
(0.08322768378 0.0007618487218 -0.0002281258568)
(0.08321459738 0.001062818899 -0.0001320326071)
(0.08497101983 0.0005274728214 -0.0001489824339)
(0.08076956902 0.003843008703 -0.0001691262782)
(0.08234037728 0.003906863262 -0.0002121233529)
(0.0819575662 0.002153351639 -0.0001796318516)
(0.08518100487 0.00147674933 -0.0001044843856)
(0.08343904384 0.001245961662 -0.0001237145435)
(0.08659483009 0.001154119852 -0.0002247392612)
(0.08723604523 0.001050512212 -0.0002392780695)
(0.08358014695 0.003462870726 -0.0002232118464)
(0.08602650114 0.0005363321076 -0.0001744097332)
(0.08103359955 0.001032253716 -0.0001784176036)
(0.08105616249 0.003356474868 -0.0001808717352)
(0.08360911499 0.004438325922 -0.0001053877674)
(0.08375902994 0.003787880859 -0.0001124527015)
(0.08643181925 0.002875304388 -0.0001327541162)
(0.08389692489 0.004060962686 -0.0001598754942)
(0.08328409495 0.0007298804297 -5.89685377e-005)
(0.08739353055 0.004460513801 -5.522626986e-005)
(0.08665258424 0.004551342088 -0.0002397238083)
(0.08272457444 0.0008734185987 -0.0001736774444)
(0.08198457337 0.001215750297 -0.0001992290789)
(0.08439268302 0.0003739714181 -0.0001465741776)
(0.0853028037 0.0008950361624 -6.559975703e-005)
(0.08761962925 0.004277066613 -7.829419889e-005)
(0.08502893111 0.004656373223 -0.000129999228)
(0.0808542895 0.001598549326 -9.483551672e-005)
(0.0886966542 0.002567488118 -0.0001319456811)
(0.08214475033 0.002162967755 -0.0002024170194)
(0.08645348683 0.0003765731133 -0.0001729551175)
(0.08515361025 0.004752669959 -0.000103041865)
(0.08466897327 0.0007407532969 -0.0002080422655)
(0.08737142512 0.002109461527 -0.00012668503)
(0.08438974911 0.004920139597 -0.0001425345671)
(0.08318791683 0.004324723777 -0.0001559711948)
(0.08492006024 0.003495187662 -8.52436364e-005)
(0.08367762724 0.003405724489 -0.0001776230998)
(0.08888299907 0.004522370151 -0.0001342503563)
(0.0818583307 0.001116245443 -0.0002179878455)
(0.08180032013 0.002538903701 -0.0002344129721)
(0.080839636 0.003703591441 -7.293889761e-005)
(0.08489475926 0.004479200622 -0.0002184521518)
(0.08243255052 0.003521815788 -9.20403171e-005)
(0.08263843703 0.004556201735 -0.0002197945743)
(0.08287110505 0.002661093498 -0.0002253104631)
(0.08615920917 0.000988668153 -0.0001648912101)
(0.0822083247 0.004089597621 -0.00011118328)
(0.08839788146 0.0010326391 -5.681590152e-005)
(0.08221030898 0.004800776431 -0.0001126557752)
(0.08466931291 0.0005182582749 -0.000219316032)
(0.08131577124 0.002747022173 -8.623521514e-005)
(0.08948451252 0.004959019144 -0.0001366584494)
(0.08831540832 0.0002467484074 -0.0001122061541)
(0.08276529234 0.002890523859 -0.0002695289989)
(0.08987039634 0.001180588938 -0.000119627734)
(0.08694864669 0.00464880299 -0.0001076727758)
(0.08850408526 0.001257071016 -0.0002122773944)
(0.08468736935 0.003501779642 -0.0001035752476)
(0.08454374143 0.003781210966 -0.0002336842022)
(0.08821897895 0.004918744458 -5.037239964e-005)
(0.08304780748 0.004769608932 -0.0001229859374)
(0.08388833851 0.0002738754324 -0.000190990742)
(0.08431544597 0.0002688177805 -9.061981767e-005)
(0.08758963961 0.0001286917286 -0.000133453189)
(0.0831002097 0.004050079091 -9.308605383e-005)
(0.08224268344 0.0004679269313 -0.0001948253732)
(0.08536804075 0.001599289138 -8.422328771e-005)
(0.08641070386 0.002256362298 -0.00010229316)
(0.08139192813 0.0007191540674 -0.0002680317908)
(0.0899488017 0.0009886862844 -5.388916974e-005)
(0.08785525985 0.0001871979308 -0.0002191256682)
(0.08263092431 0.003207579876 -6.282496453e-005)
(0.08517044329 0.0001292545109 -0.0002206872907)
(0.0856572499 0.0001818080628 -0.0001562728589)
(0.08439588268 0.0001991779279 -0.0001284436506)
(0.08420265629 0.002189275995 -0.0001779961646)
(0.0855597077 0.001761972696 -6.82726966e-005)
(0.08465284706 0.003718587996 -0.0002246345032)
(0.08263240937 0.002093175067 -0.0002279207188)
(0.08784853364 0.001294253708 -8.236560683e-005)
(0.08382374125 0.004251616063 -0.0001291363413)
(0.08544270092 0.001846163557 -0.0001790797041)
(0.08732264112 0.002306238049 -0.0001437086255)
(0.08409306237 0.003708066961 -0.0001751977612)
(0.0803591193 0.001491411762 -0.0002289482824)
(0.08268958495 0.000514675053 -0.0001680671499)
(0.0868749589 0.002893686491 -0.0002113780889)
(0.08319468998 0.003205165569 -5.597246947e-005)
(0.08669575763 0.003643115625 -7.319065665e-005)
(0.0826178674 0.004863029862 -0.0001043941714)
(0.08429144873 0.004705197238 -6.995716453e-005)
(0.08115262681 8.22224931e-005 -0.0002258842458)
(0.08509107422 0.003278926752 -0.0001577073127)
(0.08093571155 0.004494644684 -0.0001177820052)
(0.08990779207 0.004324055925 -6.053515825e-005)
(0.08888775684 0.0005859658228 -0.0001709759374)
(0.08606124261 0.001030596352 -0.0002207095254)
(0.08906227711 0.004253886181 -7.596794367e-005)
(0.08177520662 0.001531328003 -0.0002476739475)
(0.08985693271 0.002067662825 -0.0002157728648)
(0.08366048902 0.001455619315 -6.298845663e-005)
(0.0800688968 0.004731137531 -0.0001351896497)
(0.0819232836 0.0009695858738 -0.0001723547311)
(0.08703986333 0.001135920085 -0.000101799292)
(0.08194104457 0.001797762484 -7.335117059e-005)
(0.08080630618 0.003806750908 -0.0001295519355)
(0.08008534872 0.0026638907 -9.990884129e-005)
(0.08773545661 0.001216820425 -0.0001352200397)
(0.08399019238 0.004056065194 -0.0002236904662)
(0.08067825896 0.001465385461 -0.0002401856132)
(0.08759854652 0.002851998519 -0.0002437020298)
(0.08631211746 0.003588282936 -0.0001445814245)
(0.08464277503 0.002838062744 -0.0001931094544)
(0.08232461509 0.002818644532 -0.0001433385748)
(0.08448115653 0.0006601971253 -0.000151866768)
(0.0803862322 0.004006123544 -0.0001060248071)
(0.08235379769 0.002165506417 -0.0001645560091)
(0.08583778023 0.0006606103336 -0.0002341926939)
(0.08987727186 0.003626728773 -9.117112527e-005)
(0.08928837963 0.0003688375721 -0.0002284714783)
(0.08875242133 0.0004402365123 -5.586205478e-005)
(0.089415287 0.0005724036042 -0.0002151082171)
(0.08463212024 0.002787533497 -0.0002233099991)
(0.08678162822 0.002045209279 -0.0001848582272)
(0.08441593362 0.00371819664 -0.0001474464349)
(0.0818878647 0.004175015914 -0.0001939154868)
(0.08305820099 0.000731589329 -0.0001727499281)
(0.08372910815 0.0002594240709 -0.0001717699044)
(0.08100941451 0.0006741196151 -0.000112885783)
(0.08513661774 0.002339003703 -0.0001043425058)
(0.0877836562 0.001183118729 -0.0001838301767)
(0.08713513681 0.003622904297 -0.0002239006354)
(0.08468462407 0.0002606011899 -0.0001052762218)
(0.08167339614 0.0009604615454 -9.6567601e-005)
(0.08257018308 0.001418897642 -0.0001378038687)
(0.08652428761 0.003523813077 -0.000115650561)
(0.08284047341 0.003676003054 -0.0002060287518)
(0.08209699621 0.003993919105 -0.0002334398396)
(0.08386891381 0.00108471787 -0.0002253529691)
(0.08988900912 0.003396444686 -0.000225707647)
(0.0842203511 0.0008034319376 -7.354043018e-005)
(0.08485915602 0.002831853647 -0.0001072476447)
(0.08844357424 0.00314172826 -0.0001282783282)
(0.08926053059 0.001444744709 -0.0001225751308)
(0.08291292559 0.001914351797 -0.0001644931296)
(0.08052877892 8.843164087e-005 -6.887970152e-005)
(0.08856417233 0.0009428465688 -0.0002193903691)
(0.08476731899 0.003023023928 -0.0001263022076)
(0.08377513941 0.000300815983 -0.0001721261625)
(0.08561648873 0.004378932962 -0.0001376819952)
(0.08374050592 0.001045680681 -0.0001441820699)
(0.08256420369 0.00476047602 -0.00014434801)
(0.08836800795 0.003540567653 -7.69872904e-005)
(0.08917177935 0.001662923932 -0.0002695750157)
(0.08303797558 0.0008787418021 -0.0002058565672)
(0.0827313502 0.002306871614 -6.088774738e-005)
(0.08864349129 0.004177944464 -5.549846417e-005)
(0.08444699263 0.003261950551 -0.0002136807384)
(0.08440178567 0.0002461346718 -0.000219736902)
(0.08254846421 0.002475488676 -0.0001576155294)
(0.08852123014 0.004299894905 -0.0001801159467)
(0.08817431721 0.004673441444 -0.0002220076449)
(0.08123292906 0.003327500779 -0.0001527484959)
(0.08881886133 0.004856035429 -0.000140391868)
(0.08081881188 0.001324285607 -0.0002206712433)
(0.0849238963 0.002193185846 -8.559780071e-005)
(0.08861730821 0.003664129511 -0.0002209439281)
(0.08967545244 0.003113697662 -0.0001292782545)
(0.08718693125 0.0009180218089 -0.0001143070678)
(0.0818787855 0.004366090846 -0.0002184081818)
(0.08563707508 0.001655295521 -9.33828754e-005)
(0.08237342912 0.004193408607 -0.0001603841358)
(0.08277341592 0.001850840824 -0.0001531009474)
(0.08270568553 0.0005409381403 -5.484646084e-005)
(0.08964545075 0.00224274355 -0.0001456977494)
(0.08722720088 0.003323160305 -0.0001418298234)
(0.08395912701 0.0004553495317 -0.0002139621696)
(0.08542828872 0.001707901094 -8.080079308e-005)
(0.08306701502 0.002747254785 -0.0002160089817)
(0.08540279978 0.004308432541 -0.0001725189968)
(0.08310140118 0.001525422409 -0.0001653716118)
(0.08941775948 0.002935211507 -0.0001749123915)
(0.08696913245 0.004602071851 -0.0002237087421)
(0.08914704614 0.00315698422 -0.0001630459102)
(0.0829748411 0.002301381949 -0.0001356739062)
(0.08701709386 0.002040125438 -0.0001406629492)
(0.08547225792 0.002994396799 -6.431373223e-005)
(0.08554858917 0.003760949535 -0.0001623224697)
(0.08210035091 0.002703972812 -0.0002265068757)
(0.08298221002 0.004552871592 -0.0001971284326)
(0.08783692083 0.002278442048 -8.577564209e-005)
(0.08791497045 0.003512403586 -0.0002189466942)
(0.08778346371 0.001420941496 -0.000143703595)
(0.08742810788 0.002616490286 -0.0001706111562)
(0.08887147833 0.004775731289 -0.0001704868435)
(0.08091536195 0.004879539157 -0.0001144594109)
(0.08708609298 0.001808945394 -0.0001279351886)
(0.08807697069 0.0009737536244 -0.0002187198068)
(0.08430046014 0.002469718377 -0.0001233461536)
(0.08633781317 0.003828531767 -0.0001942039918)
(0.08450373225 0.003954536041 -0.0002273194545)
(0.0884525103 0.004215979752 -0.0001110542338)
(0.08494732542 0.001641459208 -7.073353442e-005)
(0.08889610988 0.003896985496 -0.0002196318843)
(0.0885701666 0.002584923461 -0.0001470916248)
(0.08326113817 0.0001154414477 -0.0001129739602)
(0.08092110751 0.002336476959 -0.0001114995359)
(0.08863021389 0.004285030409 -0.0001534026517)
(0.08389541877 0.00454515399 -0.000259955297)
(0.08069195702 0.001800676051 -8.951157269e-005)
(0.08106674005 0.002240044827 -8.601243655e-005)
(0.08984012367 0.004364274975 -0.0002220341022)
(0.08290500734 0.0007473835808 -0.0002183446904)
(0.08653863578 0.0008619972219 -0.0001774593259)
(0.08707222135 0.004478233881 -0.0001991332132)
(0.08123197703 0.00359038884 -0.0002695686468)
(0.08064483798 0.003596675952 -0.0001693979455)
(0.08773622426 0.00144366202 -0.0001710849171)
(0.0873386832 0.0008436190368 -0.0002208018669)
(0.08080939601 0.001047606482 -0.0001280944534)
(0.08968322565 0.001158105394 -7.258627062e-005)
(0.08494574061 0.0003990034202 -0.0001589744882)
(0.08472071377 0.001476052391 -0.0001827885609)
(0.08610336716 0.003738869074 -0.000181144858)
(0.08926715165 0.002552464081 -0.0001243539295)
(0.08163609981 0.004123982268 -9.227546854e-005)
(0.08859776331 0.001366208333 -0.000115320575)
(0.08279352665 0.004473795753 -0.0001847701981)
(0.08365929966 0.000621234375 -0.0001788246453)
(0.08873416437 0.002968573328 -0.0002131731568)
(0.08027079282 0.002995759458 -0.0001881872608)
(0.08921202137 0.00495576649 -5.960526927e-005)
(0.08846532653 0.0008304117627 -0.0002245498117)
(0.08485875395 0.004006820689 -0.0001104619835)
(0.08771933201 0.004194416062 -0.0001793928016)
(0.08488144126 0.003415108279 -0.0001969080786)
(0.0843976168 0.001319031382 -0.0001199072969)
(0.08464488252 0.003634458181 -0.000126571321)
(0.08161634599 0.004170875268 -0.0002218560908)
(0.08352164035 0.004525346153 -0.0002013541403)
(0.08159933688 0.002947131415 -0.0002108270368)
(0.08370797916 0.003889164234 -0.0002274808658)
(0.0874781296 0.004117784646 -0.0001544712219)
(0.08662628011 0.004203757172 -0.00022231487)
(0.08313367226 0.002659312962 -0.0002271128529)
(0.08947487259 0.00315313634 -6.511164956e-005)
(0.08257962573 0.0005862016754 -0.000169806639)
(0.08650963619 0.004081208507 -0.0002276014356)
(0.08656351888 6.85801692e-005 -0.0002239390657)
(0.0801803385 0.003305449391 -0.0001906285998)
(0.08161023003 0.00298498391 -0.000166165767)
(0.08166586336 0.004388095735 -0.0001600330235)
(0.08601753269 0.003155732059 -8.101439261e-005)
(0.08473595564 0.001382362566 -0.0001024578945)
(0.08137128511 0.00474231867 -0.0001427079377)
(0.08141477215 0.002408301562 -0.000141349469)
(0.08242581592 0.003608123545 -0.0001769476538)
(0.08465750686 0.004172018224 -7.00042759e-005)
(0.08957340466 0.003895790817 -6.512276559e-005)
(0.08849951626 0.00276854542 -0.0001811342625)
(0.08610282827 0.001395711175 -5.826833986e-005)
(0.08083945277 0.003029667256 -0.0001768503763)
(0.085770484 0.0007300760126 -0.0002106569653)
(0.08787042131 0.004819377156 -0.0002235725385)
(0.08113940608 0.004797747551 -8.640421763e-005)
(0.08848511474 0.001196874779 -0.0002268517581)
(0.08340811334 0.004071874345 -0.0001089384708)
(0.08419497748 0.001726957182 -0.0002444905526)
(0.0896909285 0.0002250680353 -8.04208813e-005)
(0.08638367997 0.0003219797586 -0.0001234913965)
(0.08287569352 0.002595273934 -0.0002352476855)
(0.08831064053 0.001424421249 -0.0002107785477)
(0.08441430353 0.003105020204 -0.0001147322097)
(0.08807845281 0.0002774782552 -6.909123737e-005)
(0.08597749538 0.001675313319 -0.0001962321091)
(0.08586353896 0.003526899313 -0.0001186967847)
(0.08075829529 0.004587780532 -9.435852208e-005)
(0.08114001514 0.004492827358 -0.0002241778057)
(0.08892099563 0.002585352942 -0.000252500033)
(0.08094632532 0.003428493578 -6.742781188e-005)
(0.08759976279 0.001676648624 -0.0002298318122)
(0.08067154858 0.004659538614 -0.0001148417857)
(0.08811981518 0.004838439518 -0.0002248528768)
(0.08468627563 0.001349893913 -0.0001091138818)
(0.08360464161 0.002725494124 -0.0002199002864)
(0.08958957535 0.002189691728 -0.0001641520608)
(0.08758280987 0.002487416874 -0.0001319458119)
(0.08135918734 0.002714909932 -6.040306433e-005)
(0.08601999175 0.004383521015 -0.0001664790407)
(0.08815068892 0.003323046981 -9.217149843e-005)
(0.08665624048 0.002366033042 -7.050074568e-005)
(0.08747663636 0.003141630416 -0.0001176986582)
(0.08126604884 0.001527393747 -0.0001315961768)
(0.08539463379 0.002854821199 -0.0002375416086)
(0.08662188008 0.0008241143887 -0.0001923112216)
(0.08211199533 0.003215643189 -8.237367214e-005)
(0.08600018708 0.003214750626 -7.393285426e-005)
(0.0808952033 0.003586624051 -8.543546462e-005)
(0.08274772182 0.003644323846 -6.930047264e-005)
(0.08438507956 0.0001851876582 -7.136399906e-005)
(0.08778022231 0.0006681751787 -0.0001142072006)
(0.08260881981 0.002902672712 -7.994929547e-005)
(0.087878108 0.001093252825 -0.0001847608246)
(0.08740963451 0.00179786333 -8.559935725e-005)
(0.08345373024 0.00216435138 -0.000195609745)
(0.08986761735 0.001317069857 -6.608236629e-005)
(0.08721453251 0.004599269327 -0.0002240435448)
(0.08441879154 0.004654384598 -0.0001976080803)
(0.08815907482 0.00401921069 -0.0001095453903)
(0.08878191703 0.000228488505 -6.917250244e-005)
(0.0828233257 0.002788051217 -0.000219461937)
(0.08909819564 0.000487351909 -0.0001155284175)
(0.08221338847 0.003231920565 -0.0001647968466)
(0.08034174543 0.0008302530375 -0.0001231166461)
(0.08541692653 0.001632470608 -0.0002213963024)
(0.08294467821 0.003485489319 -0.0001723999047)
(0.08494785098 0.004751688809 -0.0001500285683)
(0.08509330211 0.001536567008 -0.0002337435298)
(0.08629551242 0.004813551058 -7.111542051e-005)
(0.08649992453 0.002725303049 -0.0001328592161)
(0.08015997953 0.000225665173 -0.0001233885462)
(0.08310465126 0.004643869067 -9.582820437e-005)
(0.08144787568 0.004865544302 -5.913546762e-005)
(0.08343168138 0.002971714543 -0.0002066062458)
(0.08755256173 9.348115658e-005 -0.0001676749914)
(0.08956759748 0.0002275528089 -9.738612117e-005)
(0.08255925533 0.002588765728 -0.0001347381378)
(0.08538449378 0.0009483113459 -0.0001352250093)
(0.08290915204 0.003354976946 -0.0001225091518)
(0.08657268908 0.00202260046 -8.844073494e-005)
(0.08048804184 0.002864503806 -0.000221882425)
(0.0806805335 0.001122134755 -6.756810555e-005)
(0.08718048129 0.0002832288666 -0.000160128778)
(0.08777647287 0.001096575691 -6.141532496e-005)
(0.08049381999 0.002554668596 -8.349786555e-005)
(0.08649627829 0.003969848019 -0.0002075815893)
(0.08101074098 0.002805630676 -0.0002238718751)
(0.08313694267 0.002609768834 -7.006217427e-005)
(0.08527318917 0.001028844652 -0.0001732228232)
(0.08771972194 0.002366359058 -6.258068953e-005)
(0.0851934203 0.003393257315 -0.0001667311794)
(0.08054921786 0.001293663103 -9.936248197e-005)
(0.08832340308 0.004607455406 -7.108788582e-005)
(0.08334942497 0.003495113152 -0.0001419740015)
(0.0818837265 0.003429328737 -0.0001316765166)
(0.08410542088 0.001166704367 -0.0001811863375)
(0.08039615992 0.00206577292 -6.244017438e-005)
(0.08639152242 0.003734550293 -0.0001671618776)
(0.08112985906 0.003096233933 -0.0001076224073)
(0.08112693565 0.003218865111 -0.0002215858826)
(0.08830224954 0.003502460359 -0.0001532175605)
(0.08018168742 0.003385071959 -7.90563064e-005)
(0.08501825365 0.00134676983 -0.0002281750889)
(0.08117847487 0.004532894593 -9.410671489e-005)
(0.0874385792 0.004353552094 -0.0001530491636)
(0.08049253756 0.001530677558 -0.0001650380187)
(0.08519080994 0.003549382096 -0.0001670021536)
(0.08680276676 0.001993208935 -0.0002027229651)
(0.08179066727 0.004922710768 -8.03264492e-005)
(0.08902786271 0.001675558823 -0.0002177295319)